
  OWA STORM WATER MANAGEMENT MODEL - VERSION v5.1.14 (OWA 2023-01-25)
  --------------------------------------------------------------

  
  *********************************************************
  NOTE: The summary statistics displayed in this report are
  based on results found at every computational time step,  
  not just on results from each reporting time step.
  *********************************************************
  
  ****************
  Analysis Options
  ****************
  Flow Units ............... CMS
  Process Models:
    Rainfall/Runoff ........ YES
    RDII ................... NO
    Snowmelt ............... NO
    Groundwater ............ NO
    Flow Routing ........... YES
    Ponding Allowed ........ YES
    Water Quality .......... NO
  Infiltration Method ...... HORTON
  Flow Routing Method ...... DYNWAVE
  Surcharge Method ......... SLOT
  Starting Date ............ 09/05/2019 00:00:00
  Ending Date .............. 09/10/2019 00:00:00
  Antecedent Dry Days ...... 0.0
  Report Time Step ......... 01:00:00
  Wet Time Step ............ 00:01:00
  Dry Time Step ............ 01:00:00
  Routing Time Step ........ 10.00 sec
  Variable Time Step ....... NO
  Maximum Trials ........... 8
  Number of Threads ........ 1
  Head Tolerance ........... 0.001500 m
  
  
  **************************        Volume         Depth
  Runoff Quantity Continuity     hectare-m            mm
  **************************     ---------       -------
  Total Precipitation ......         4.256         7.601
  Evaporation Loss .........         0.000         0.000
  Infiltration Loss ........         2.779         4.963
  Surface Runoff ...........         0.524         0.935
  Final Storage ............         0.953         1.703
  Continuity Error (%) .....        -0.001
  
  
  **************************        Volume        Volume
  Flow Routing Continuity        hectare-m      10^6 ltr
  **************************     ---------     ---------
  Dry Weather Inflow .......         0.000         0.000
  Wet Weather Inflow .......         0.524         5.236
  Groundwater Inflow .......         0.000         0.000
  RDII Inflow ..............         0.000         0.000
  External Inflow ..........         0.000         0.000
  External Outflow .........         0.749         7.487
  Flooding Loss ............         0.000         0.000
  Evaporation Loss .........         0.000         0.000
  Exfiltration Loss ........         0.000         0.000
  Initial Stored Volume ....         0.259         2.590
  Final Stored Volume ......         0.035         0.347
  Continuity Error (%) .....        -0.092
  
  
  *************************
  Highest Continuity Errors
  *************************
  Node J2 (-16.59%)
  Node J3 (-14.35%)
  Node J4 (1.92%)
  
  
  ********************************
  Highest Flow Instability Indexes
  ********************************
  All links are stable.
  
  
  *************************
  Routing Time Step Summary
  *************************
  Minimum Time Step           :    10.00 sec
  Average Time Step           :    10.00 sec
  Maximum Time Step           :    10.00 sec
  Percent in Steady State     :     0.00
  Average Iterations per Step :     2.00
  Percent Not Converging      :     0.00
  
  
  ***************************
  Subcatchment Runoff Summary
  ***************************
  
  ------------------------------------------------------------------------------------------------------------------------------
                            Total      Total      Total      Total     Imperv       Perv      Total       Total     Peak  Runoff
                           Precip      Runon       Evap      Infil     Runoff     Runoff     Runoff      Runoff   Runoff   Coeff
  Subcatchment                 mm         mm         mm         mm         mm         mm         mm    10^6 ltr      CMS
  ------------------------------------------------------------------------------------------------------------------------------
  S1                         7.60       0.00       0.00       0.00       0.00       0.00       0.00        0.00     0.00   0.000
  S2                         7.60       0.00       0.00       0.00       0.00       0.00       0.00        0.00     0.00   0.000
  S3                         7.60       0.00       0.00       0.00       0.00       0.00       0.00        0.00     0.00   0.000
  S_Upstream                 7.60       0.00       0.00       5.56       1.05       0.00       1.05        5.24     0.03   0.138
  
  
  ******************
  Node Depth Summary
  ******************
  
  ---------------------------------------------------------------------------------
                                 Average  Maximum  Maximum  Time of Max    Reported
                                   Depth    Depth      HGL   Occurrence   Max Depth
  Node                 Type       Meters   Meters   Meters  days hr:min      Meters
  ---------------------------------------------------------------------------------
  J1                   JUNCTION     0.01     0.20     7.70     0  00:00        0.02
  J2                   JUNCTION     0.02     0.21     6.71     0  00:03        0.06
  J3                   JUNCTION     0.02     0.22     6.22     0  00:10        0.10
  J4                   JUNCTION     0.03     0.19     5.69     0  00:43        0.18
  OF1                  OUTFALL      0.00     0.04     5.04     0  00:45        0.03
  SU1                  STORAGE      0.00     0.00     6.75     0  00:00        0.00
  SU2                  STORAGE      0.02     0.18     6.18     0  00:30        0.14
  SU3                  STORAGE      0.03     0.16     5.66     0  01:09        0.16
  
  
  *******************
  Node Inflow Summary
  *******************
  
  -------------------------------------------------------------------------------------------------
                                  Maximum  Maximum                  Lateral       Total        Flow
                                  Lateral    Total  Time of Max      Inflow      Inflow     Balance
                                   Inflow   Inflow   Occurrence      Volume      Volume       Error
  Node                 Type           CMS      CMS  days hr:min    10^6 ltr    10^6 ltr     Percent
  -------------------------------------------------------------------------------------------------
  J1                   JUNCTION     0.031    0.031     1  19:31        5.24        5.24      -8.519
  J2                   JUNCTION     0.000    0.843     0  00:02           0        5.72     -14.232
  J3                   JUNCTION     0.000    0.787     0  00:05           0        6.69     -12.548
  J4                   JUNCTION     0.000    0.649     0  00:11           0        7.65       1.956
  OF1                  OUTFALL      0.000    0.407     0  00:45           0        7.49       0.000
  SU1                  STORAGE      0.000    0.000     0  00:00           0           0       0.000 ltr
  SU2                  STORAGE      0.000    0.029     0  00:00           0      0.0194       0.632
  SU3                  STORAGE      0.000    0.008     0  00:31           0      0.0164       0.003
  
  
  **********************
  Node Surcharge Summary
  **********************
  
  No nodes were surcharged.
  
  
  *********************
  Node Flooding Summary
  *********************
  
  No nodes were flooded.
  
  
  **********************
  Storage Volume Summary
  **********************
  
  --------------------------------------------------------------------------------------------------
                         Average     Avg  Evap Exfil       Maximum     Max    Time of Max    Maximum
                          Volume    Pcnt  Pcnt  Pcnt        Volume    Pcnt     Occurrence    Outflow
  Storage Unit           1000 m3    Full  Loss  Loss       1000 m3    Full    days hr:min        CMS
  --------------------------------------------------------------------------------------------------
  SU1                      0.000       0     0     0         0.000       0       0  00:00      0.000
  SU2                      0.000       0     0     0         0.019       1       0  00:30      0.006
  SU3                      0.001       0     0     0         0.015       1       0  01:09      0.002
  
  
  ***********************
  Outfall Loading Summary
  ***********************
  
  -----------------------------------------------------------
                         Flow       Avg       Max       Total
                         Freq      Flow      Flow      Volume
  Outfall Node           Pcnt       CMS       CMS    10^6 ltr
  -----------------------------------------------------------
  OF1                   99.99     0.017     0.407       7.487
  -----------------------------------------------------------
  System                99.99     0.017     0.407       7.487
  
  
  ********************
  Link Flow Summary
  ********************
  
  -----------------------------------------------------------------------------
                                 Maximum  Time of Max   Maximum    Max/    Max/
                                  |Flow|   Occurrence   |Veloc|    Full    Full
  Link                 Type          CMS  days hr:min     m/sec    Flow   Depth
  -----------------------------------------------------------------------------
  C1                   CONDUIT     0.843     0  00:02      0.86    0.00    0.02
  C2                   CONDUIT     0.787     0  00:05      0.72    0.00    0.02
  C3                   CONDUIT     0.649     0  00:11      0.93    0.00    0.02
  C4                   CONDUIT     0.407     0  00:45      0.70    0.00    0.01
  OR1                  ORIFICE     0.000     0  00:00                          
  OR2                  ORIFICE     0.029     0  00:00                          
  OR3                  ORIFICE     0.008     0  00:31                          
  
  
  ***************************
  Flow Classification Summary
  ***************************
  
  -------------------------------------------------------------------------------------
                      Adjusted    ---------- Fraction of Time in Flow Class ---------- 
                       /Actual         Up    Down  Sub   Sup   Up    Down  Norm  Inlet 
  Conduit               Length    Dry  Dry   Dry   Crit  Crit  Crit  Crit  Ltd   Ctrl  
  -------------------------------------------------------------------------------------
  C1                      1.00   0.00  0.00  0.00  1.00  0.00  0.00  0.00  0.98  0.00
  C2                      1.00   0.00  0.00  0.00  1.00  0.00  0.00  0.00  0.77  0.00
  C3                      1.00   0.00  0.00  0.00  1.00  0.00  0.00  0.00  1.00  0.00
  C4                      1.00   0.00  0.00  0.00  1.00  0.00  0.00  0.00  0.00  0.00
  
  
  *************************
  Conduit Surcharge Summary
  *************************
  
  No conduits were surcharged.
  

  Analysis begun on:  Mon Mar 13 16:23:44 2023
  Analysis ended on:  Mon Mar 13 16:35:34 2023
  Total elapsed time: 00:11:50