
  OWA STORM WATER MANAGEMENT MODEL - VERSION v5.1.14 (OWA 2023-01-25)
  --------------------------------------------------------------

  WARNING 10: crest elevation raised to downstream invert for regulator Link OR3
  
  *********************************************************
  NOTE: The summary statistics displayed in this report are
  based on results found at every computational time step,  
  not just on results from each reporting time step.
  *********************************************************
  
  ****************
  Analysis Options
  ****************
  Flow Units ............... CMS
  Process Models:
    Rainfall/Runoff ........ YES
    RDII ................... NO
    Snowmelt ............... NO
    Groundwater ............ NO
    Flow Routing ........... YES
    Ponding Allowed ........ YES
    Water Quality .......... NO
  Infiltration Method ...... HORTON
  Flow Routing Method ...... DYNWAVE
  Surcharge Method ......... SLOT
  Starting Date ............ 09/05/2019 00:00:00
  Ending Date .............. 09/10/2019 00:00:00
  Antecedent Dry Days ...... 0.0
  Report Time Step ......... 01:00:00
  Wet Time Step ............ 00:01:00
  Dry Time Step ............ 01:00:00
  Routing Time Step ........ 10.00 sec
  Variable Time Step ....... NO
  Maximum Trials ........... 8
  Number of Threads ........ 1
  Head Tolerance ........... 0.001500 m
  
  
  **************************        Volume         Depth
  Runoff Quantity Continuity     hectare-m            mm
  **************************     ---------       -------
  Total Precipitation ......         0.896         1.599
  Evaporation Loss .........         0.000         0.000
  Infiltration Loss ........         0.603         1.077
  Surface Runoff ...........         0.015         0.027
  Final Storage ............         0.278         0.496
  Continuity Error (%) .....        -0.001
  
  
  **************************        Volume        Volume
  Flow Routing Continuity        hectare-m      10^6 ltr
  **************************     ---------     ---------
  Dry Weather Inflow .......         0.000         0.000
  Wet Weather Inflow .......         0.015         0.152
  Groundwater Inflow .......         0.000         0.000
  RDII Inflow ..............         0.000         0.000
  External Inflow ..........         0.000         0.000
  External Outflow .........         0.131         1.314
  Flooding Loss ............         0.000         0.000
  Evaporation Loss .........         0.000         0.000
  Exfiltration Loss ........         0.000         0.000
  Initial Stored Volume ....         0.155         1.550
  Final Stored Volume ......         0.040         0.399
  Continuity Error (%) .....        -0.629
  
  
  *************************
  Highest Continuity Errors
  *************************
  Node J2 (-152.26%)
  Node J3 (9.59%)
  
  
  ********************************
  Highest Flow Instability Indexes
  ********************************
  All links are stable.
  
  
  *************************
  Routing Time Step Summary
  *************************
  Minimum Time Step           :    10.00 sec
  Average Time Step           :    10.00 sec
  Maximum Time Step           :    10.00 sec
  Percent in Steady State     :     0.00
  Average Iterations per Step :     2.00
  Percent Not Converging      :     0.00
  
  
  ***************************
  Subcatchment Runoff Summary
  ***************************
  
  ------------------------------------------------------------------------------------------------------------------------------
                            Total      Total      Total      Total     Imperv       Perv      Total       Total     Peak  Runoff
                           Precip      Runon       Evap      Infil     Runoff     Runoff     Runoff      Runoff   Runoff   Coeff
  Subcatchment                 mm         mm         mm         mm         mm         mm         mm    10^6 ltr      CMS
  ------------------------------------------------------------------------------------------------------------------------------
  S1                         1.60       0.00       0.00       0.00       0.00       0.00       0.00        0.00     0.00   0.000
  S2                         1.60       0.00       0.00       0.00       0.00       0.00       0.00        0.00     0.00   0.000
  S3                         1.60       0.00       0.00       0.16       0.00       0.00       0.00        0.00     0.00   0.000
  S_Upstream                 1.60       0.00       0.00       1.20       0.03       0.00       0.03        0.15     0.00   0.019
  
  
  ******************
  Node Depth Summary
  ******************
  
  ---------------------------------------------------------------------------------
                                 Average  Maximum  Maximum  Time of Max    Reported
                                   Depth    Depth      HGL   Occurrence   Max Depth
  Node                 Type       Meters   Meters   Meters  days hr:min      Meters
  ---------------------------------------------------------------------------------
  J1                   JUNCTION     0.01     0.20     7.70     0  00:00        0.01
  J2                   JUNCTION     0.02     0.22     6.72     0  00:05        0.06
  J3                   JUNCTION     0.10     0.27     6.27     0  00:46        0.26
  OF1                  OUTFALL      0.07     0.20     5.20     0  00:46        0.20
  SU1                  STORAGE      0.00     0.00     6.75     0  00:00        0.00
  SU2                  STORAGE      0.10     0.24     6.24     0  01:19        0.23
  SU3                  STORAGE      0.57     0.64     6.14     0  03:24        0.64
  
  
  *******************
  Node Inflow Summary
  *******************
  
  -------------------------------------------------------------------------------------------------
                                  Maximum  Maximum                  Lateral       Total        Flow
                                  Lateral    Total  Time of Max      Inflow      Inflow     Balance
                                   Inflow   Inflow   Occurrence      Volume      Volume       Error
  Node                 Type           CMS      CMS  days hr:min    10^6 ltr    10^6 ltr     Percent
  -------------------------------------------------------------------------------------------------
  J1                   JUNCTION     0.004    0.004     0  05:57       0.152       0.152     -76.931
  J2                   JUNCTION     0.000    0.846     0  00:02           0       0.659     -60.358
  J3                   JUNCTION     0.000    0.602     0  00:18           0        1.74      10.604
  OF1                  OUTFALL      0.000    0.133     0  00:46           0        1.31       0.000
  SU1                  STORAGE      0.000    0.000     0  00:00           0           0       0.000 ltr
  SU2                  STORAGE      0.000    0.018     0  00:22           0      0.0319       0.169
  SU3                  STORAGE      0.000    0.036     0  00:46           0       0.228       0.009
  
  
  **********************
  Node Surcharge Summary
  **********************
  
  No nodes were surcharged.
  
  
  *********************
  Node Flooding Summary
  *********************
  
  No nodes were flooded.
  
  
  **********************
  Storage Volume Summary
  **********************
  
  --------------------------------------------------------------------------------------------------
                         Average     Avg  Evap Exfil       Maximum     Max    Time of Max    Maximum
                          Volume    Pcnt  Pcnt  Pcnt        Volume    Pcnt     Occurrence    Outflow
  Storage Unit           1000 m3    Full  Loss  Loss       1000 m3    Full    days hr:min        CMS
  --------------------------------------------------------------------------------------------------
  SU1                      0.000       0     0     0         0.000       0       0  00:00      0.000
  SU2                      0.008       0     0     0         0.032       1       0  01:19      0.004
  SU3                      0.188       8     0     0         0.228      10       0  03:24      0.002
  
  
  ***********************
  Outfall Loading Summary
  ***********************
  
  -----------------------------------------------------------
                         Flow       Avg       Max       Total
                         Freq      Flow      Flow      Volume
  Outfall Node           Pcnt       CMS       CMS    10^6 ltr
  -----------------------------------------------------------
  OF1                   99.84     0.022     0.133       1.314
  -----------------------------------------------------------
  System                99.84     0.022     0.133       1.314
  
  
  ********************
  Link Flow Summary
  ********************
  
  -----------------------------------------------------------------------------
                                 Maximum  Time of Max   Maximum    Max/    Max/
                                  |Flow|   Occurrence   |Veloc|    Full    Full
  Link                 Type          CMS  days hr:min     m/sec    Flow   Depth
  -----------------------------------------------------------------------------
  C1                   CONDUIT     0.846     0  00:02      0.86    0.00    0.02
  C2                   CONDUIT     0.602     0  00:18      0.78    0.00    0.02
  C3                   CONDUIT     0.133     0  00:46      0.94    0.13    0.24
  OR1                  ORIFICE     0.000     0  00:00                          
  OR2                  ORIFICE     0.018     0  00:22                          
  OR3                  ORIFICE     0.036     0  00:46                          
  
  
  ***************************
  Flow Classification Summary
  ***************************
  
  -------------------------------------------------------------------------------------
                      Adjusted    ---------- Fraction of Time in Flow Class ---------- 
                       /Actual         Up    Down  Sub   Sup   Up    Down  Norm  Inlet 
  Conduit               Length    Dry  Dry   Dry   Crit  Crit  Crit  Crit  Ltd   Ctrl  
  -------------------------------------------------------------------------------------
  C1                      1.00   0.00  0.00  0.00  1.00  0.00  0.00  0.00  1.00  0.00
  C2                      1.00   0.00  0.00  0.00  1.00  0.00  0.00  0.00  0.98  0.00
  C3                      1.00   0.00  0.00  0.00  1.00  0.00  0.00  0.00  0.00  0.00
  
  
  *************************
  Conduit Surcharge Summary
  *************************
  
  No conduits were surcharged.
  

  Analysis begun on:  Wed Mar  1 21:18:42 2023
  Analysis ended on:  Wed Mar  1 21:20:10 2023
  Total elapsed time: 00:01:28